Circuit: * D:\Elektronik\LTSpice\Projekte\masterarbeit\test\test.asc


Date: Sat Mar 12 12:53:32 2016
Total elapsed time: 0.030 seconds.

tnom = 27
temp = 27
method = trap
totiter = 405
traniter = 0
tranpoints = 0
accept = 0
rejected = 0
matrix size = 9
fillins = 0
solver = Normal
Matrix Compiler1: 492 bytes object code size  0.1/0.1/[0.0]
Matrix Compiler2: 735 bytes object code size  0.1/0.1/[0.0]


