Circuit: * D:\Elektronik\LTSpice\Projekte\transconductance_amp\trans_amp.asc

V3: Missing value, assumed 0V @ DC
.step v4=-3
.step v4=-2.5
.step v4=-2
.step v4=-1.5
.step v4=-1
.step v4=-0.5
.step v4=0
.step v4=0.5
.step v4=1
.step v4=1.5
.step v4=2
.step v4=2.5
.step v4=3

Date: Mon Mar 16 21:37:17 2015
Total elapsed time: 0.166 seconds.

tnom = 27
temp = 27
method = trap
totiter = 21119
traniter = 0
tranpoints = 0
accept = 0
rejected = 0
matrix size = 12
fillins = 0
solver = Normal
Matrix Compiler1: 652 Bytes object code size  0.2/0.1/[0.0]
Matrix Compiler2: 1,03 KB object code size  0.1/0.2/[0.1]


