Circuit: * D:\Benutzer\Chrisu\Desktop\git\spice\LTSpice\Projekte\masterarbeit\differenzverstaerker\differenzverstaerker.asc


Date: Sat Apr 09 19:20:10 2016
Total elapsed time: 0.028 seconds.

tnom = 27
temp = 27
method = trap
totiter = 165
traniter = 0
tranpoints = 0
accept = 0
rejected = 0
matrix size = 12
fillins = 0
solver = Normal
Matrix Compiler1: 590 bytes object code size  0.2/0.1/[0.0]
Matrix Compiler2: 1.06 KB object code size  0.1/0.1/[0.0]


