Circuit: * D:\Elektronik\LTSpice\Projekte\ind_last\Draft2.asc

Direct Newton iteration for .op point succeeded.

Date: Wed Mar 16 16:04:47 2016
Total elapsed time: 0.031 seconds.

tnom = 27
temp = 27
method = modified trap
totiter = 2092
traniter = 2088
tranpoints = 1045
accept = 1045
rejected = 0
matrix size = 4
fillins = 0
solver = Normal
Matrix Compiler1:       8 opcodes  0.1/[0.0]/0.0
Matrix Compiler2: 276 bytes object code size  0.0/0.1/[0.0]


