Circuit: * D:\Elektronik\LTSpice\Projekte\bipolar_amplifier\bipolar_amplifier.asc

Direct Newton iteration for .op point succeeded.

Date: Tue Sep 01 19:51:59 2015
Total elapsed time: 0.058 seconds.

tnom = 27
temp = 27
method = modified trap
totiter = 4046
traniter = 4041
tranpoints = 2021
accept = 2021
rejected = 0
matrix size = 24
fillins = 0
solver = Normal
Matrix Compiler1: 1,41 KB object code size  0.3/0.2/[0.1]
Matrix Compiler2: 1,80 KB object code size  0.2/0.2/[0.1]


